scratch/greDemo/GridLabD Conversion/SUB 5.glm
///////////////////////////////////////////////////////; 
// This glm created by 'Milsoft to GridLabD Export'. //; 
//             Wed May 21 16:25:06 2014              //; 
///////////////////////////////////////////////////////; 

clock { timestamp '2000-01-01 00:00:00'; } 

module powerflow{ solver_method FBS; } 
// Note: Number Of Looped Switches in WindMil = 0 

object node {
          name            SUB 5; 
          phases          ABCN; 
          bustype         PQ; 
          voltage_A       +7200+0j; 
          voltage_B       -3600-6235.3828j; 
          voltage_C       -3600+6235.3828j; 
          nominal_voltage 7200; 
          } 

object node {name   span_45774_n; phases ABCN; nominal_voltage 7200;  } 

object underground_line {
          name   span_45774; 
          from   span_19931_n; 
          to     span_45774_n; 
          phases ABCN; 
          length 285; 
          configuration SystemCnstDefaultABC__1/0 URD; 
          } 

object node {name   span_19931_n; phases ABCN; nominal_voltage 7200;  } 

object underground_line {
          name   span_19931; 
          from   span_13747_n; 
          to     span_19931_n; 
          phases ABCN; 
          length 303.57974; 
          configuration SystemCnstDefaultABC__1/0 URD; 
          } 

object node {name   span_13747_n; phases ABCN; nominal_voltage 7200;  } 

object underground_line {
          name   span_13747; 
          from   span_17068_n; 
          to     span_13747_n; 
          phases ABCN; 
          length 135.86655; 
          configuration SystemCnstDefaultABC__1/0 URD; 
          } 

object node {name   span_17068_n; phases ABCN; nominal_voltage 7200;  } 

object underground_line {
          name   span_17068; 
          from   F67-5-6_n; 
          to     span_17068_n; 
          phases ABCN; 
          length 86.614563; 
          configuration SystemCnstDefaultABC__1/0 URD; 
          } 

object node {name   F67-5-6_n; phases ABCN; nominal_voltage 7200;  } 

object fuse {
          name          F67-5-6; 
          from          span_1050_n; 
          to            F67-5-6_n; 
          phases        ABCN; 
          current_limit 45.00544; 
          mean_replacement_time 1.0 ; 
          repair_dist_type      NONE; 
          } 

object node {name   span_1050_n; phases ABCN; nominal_voltage 7200;  } 

object overhead_line {
          name   span_1050; 
          from   F67-8-5_n; 
          to     span_1050_n; 
          phases ABCN; 
          length 315.11557; 
          configuration SystemCnstDefaultABCN__2 AC; 
          } 

object node {name   F67-8-5_n; phases ABCN; nominal_voltage 7200;  } 

object fuse {
          name          F67-8-5; 
          from          span_6714_n; 
          to            F67-8-5_n; 
          phases        ABCN; 
          current_limit 119.95905; 
          mean_replacement_time 1.0 ; 
          repair_dist_type      NONE; 
          } 

object node {name   span_6714_n; phases ABCN; nominal_voltage 7200;  } 

object overhead_line {
          name   span_6714; 
          from   span_9710_n; 
          to     span_6714_n; 
          phases ABCN; 
          length 358.91946; 
          configuration SystemCnstDefaultABCN__1/0 AC; 
          } 

object node {name   span_9710_n; phases ABCN; nominal_voltage 7200;  } 

object overhead_line {
          name   span_9710; 
          from   span_9709_n; 
          to     span_9710_n; 
          phases ABCN; 
          length 152.01723; 
          configuration SystemCnstDefaultABCN__1/0 AC; 
          } 

object node {name   span_9709_n; phases ABCN; nominal_voltage 7200;  } 

object overhead_line {
          name   span_9709; 
          from   span_9708_n; 
          to     span_9709_n; 
          phases ABCN; 
          length 86.160347; 
          configuration SystemCnstDefaultABCN__1/0 AC; 
          } 

object node {name   span_9708_n; phases ABCN; nominal_voltage 7200;  } 

object overhead_line {
          name   span_9708; 
          from   span_9965_n; 
          to     span_9708_n; 
          phases ABCN; 
          length 155.05037; 
          configuration SystemCnstDefaultABCN__1/0 AC; 
          } 

object node {name   span_9965_n; phases ABCN; nominal_voltage 7200;  } 

object overhead_line {
          name   span_9965; 
          from   span_9966_n; 
          to     span_9965_n; 
          phases ABCN; 
          length 131.18982; 
          configuration SystemCnstDefaultABCN__1/0 AC; 
          } 

object node {name   span_9966_n; phases ABCN; nominal_voltage 7200;  } 

object overhead_line {
          name   span_9966; 
          from   span_2782_n; 
          to     span_9966_n; 
          phases ABCN; 
          length 221.49812; 
          configuration SystemCnstDefaultABCN__1/0 AC; 
          } 

object node {name   span_2782_n; phases ABCN; nominal_voltage 7200;  } 

object overhead_line {
          name   span_2782; 
          from   span_45765_n; 
          to     span_2782_n; 
          phases ABCN; 
          length 499.38983; 
          configuration SystemCnstDefaultABCN__1/0 AC; 
          } 

object node {name   span_45765_n; phases ABCN; nominal_voltage 7200;  } 

object overhead_line {
          name   span_45765; 
          from   span_45766_n; 
          to     span_45765_n; 
          phases ABCN; 
          length 132; 
          configuration SystemCnstDefaultABCN__1/0 AC; 
          } 

object node {name   span_45766_n; phases ABCN; nominal_voltage 7200;  } 

object overhead_line {
          name   span_45766; 
          from   span_6717_n; 
          to     span_45766_n; 
          phases ABCN; 
          length 189; 
          configuration SystemCnstDefaultABCN__1/0 AC; 
          } 

object node {name   span_6717_n; phases ABCN; nominal_voltage 7200;  } 

object overhead_line {
          name   span_6717; 
          from   span_41690_n; 
          to     span_6717_n; 
          phases ABCN; 
          length 1942.328; 
          configuration SystemCnstDefaultABCN__1/0 AC; 
          } 

object node {name   span_41690_n; phases ABCN; nominal_voltage 7200;  } 

object overhead_line {
          name   span_41690; 
          from   span_41689_n; 
          to     span_41690_n; 
          phases ABCN; 
          length 1887.6603; 
          configuration SystemCnstDefaultABCN__1/0 AC; 
          } 

object node {name   span_41689_n; phases ABCN; nominal_voltage 7200;  } 

object overhead_line {
          name   span_41689; 
          from   ON CKT 2_n; 
          to     span_41689_n; 
          phases ABCN; 
          length 1196.1482; 
          configuration SystemCnstDefaultABCN__1/0 AC; 
          } 

object node {name   ON CKT 2_n; phases ABCN; nominal_voltage 7200;  } 

object recloser {
          name                ON CKT 2; 
          from                SUB 5; 
          to                  ON CKT 2_n; 
          phases              ABCN; 
          max_number_of_tries 0; 
          } 

object underground_line {
          name   span_47472; 
          from   T6459125_n; 
          to     span_47472_n; 
          phases CN; 
          length 59.813313; 
          configuration SystemCnstDefaultC__4/0AL UG; 
          } 

object node {name   span_47472_n; phases CN; nominal_voltage 120000;  } 

object overhead_line {
          name   span_47473; 
          from   span_4540_n; 
          to     span_47473_n; 
          phases CN; 
          length 142; 
          configuration SystemCnstDefaultCN__4/0 AC; 
          } 

object node {name   span_47473_n; phases CN; nominal_voltage 7200;  } 

object overhead_line {
          name   span_47474; 
          from   span_47473_n; 
          to     span_47474_n; 
          phases CN; 
          length 65; 
          configuration SystemCnstDefaultCN__4/0 AC; 
          } 

object node {name   span_47474_n; phases CN; nominal_voltage 7200;  } 

object transformer {
          name   T6459084; 
          from   span_47474_n; 
          to     T6459084_n; 
          phases CN; 
          configuration SINGLE_PHASE-_15-7200000To120000V; 
          } 

object node {name   T6459084_n; phases CN; nominal_voltage 120000;  } 

object overhead_line {
          name   span_47476; 
          from   T6459084_n; 
          to     span_47476_n; 
          phases CN; 
          length 45.475021; 
          configuration SystemCnstDefaultCN__1/0 Triplex; 
          } 

object node {name   span_47476_n; phases CN; nominal_voltage 120000;  } 

object overhead_line {
          name   span_47477; 
          from   span_47476_n; 
          to     span_47477_n; 
          phases CN; 
          length 50.46484; 
          configuration SystemCnstDefaultCN__1/0 Triplex; 
          } 

object node {name   span_47477_n; phases CN; nominal_voltage 120000;  } 

object overhead_line {
          name   span_47478; 
          from   T6459084_n; 
          to     span_47478_n; 
          phases CN; 
          length 58.096004; 
          configuration SystemCnstDefaultCN__1/0 Triplex; 
          } 

object node {name   span_47478_n; phases CN; nominal_voltage 120000;  } 

object fuse {
          name          F64-31-17; 
          from          span_47474_n; 
          to            F64-31-17_n; 
          phases        CN; 
          current_limit 45.00544; 
          mean_replacement_time 1.0 ; 
          repair_dist_type      NONE; 
          } 

object node {name   F64-31-17_n; phases CN; nominal_voltage 7200;  } 

object underground_line {
          name   span_17107; 
          from   F64-31-17_n; 
          to     span_17107_n; 
          phases CN; 
          length 102.77727; 
          configuration SystemCnstDefaultC__1/0 URD; 
          } 

object node {name   span_17107_n; phases CN; nominal_voltage 7200;  } 

object transformer {
          name   T6459496; 
          from   span_17107_n; 
          to     T6459496_n; 
          phases CN; 
          configuration SINGLE_PHASE-_15-7200000To120000V; 
          } 

object node {name   T6459496_n; phases CN; nominal_voltage 120000;  } 

object underground_line {
          name   span_47479; 
          from   T6459496_n; 
          to     span_47479_n; 
          phases CN; 
          length 57.469784; 
          configuration SystemCnstDefaultC__4/0AL UG; 
          } 

object node {name   span_47479_n; phases CN; nominal_voltage 120000;  } 

object transformer {
          name   T6459085; 
          from   span_8287_n; 
          to     T6459085_n; 
          phases CN; 
          configuration SINGLE_PHASE-_15-7200000To120000V; 
          } 

object node {name   T6459085_n; phases CN; nominal_voltage 120000;  } 

object overhead_line {
          name   span_47469; 
          from   T6459085_n; 
          to     span_47469_n; 
          phases CN; 
          length 61.733143; 
          configuration SystemCnstDefaultCN__1/0 Triplex; 
          } 

object node {name   span_47469_n; phases CN; nominal_voltage 120000;  } 

object overhead_line {
          name   span_47471; 
          from   span_47469_n; 
          to     span_47471_n; 
          phases CN; 
          length 43.234688; 
          configuration SystemCnstDefaultCN__1/0 Triplex; 
          } 

object node {name   span_47471_n; phases CN; nominal_voltage 120000;  } 

object overhead_line {
          name   span_47470; 
          from   span_47469_n; 
          to     span_47470_n; 
          phases CN; 
          length 59.479568; 
          configuration SystemCnstDefaultCN__1/0 Triplex; 
          } 

object node {name   span_47470_n; phases CN; nominal_voltage 120000;  } 

object transformer {
          name   T6459083; 
          from   span_47461_n; 
          to     T6459083_n; 
          phases CN; 
          configuration SINGLE_PHASE-_10-7200To120V; 
          } 

object node {name   T6459083_n; phases CN; nominal_voltage 120;  } 

object overhead_line {
          name   span_13212; 
          from   T6459083_n; 
          to     span_13212_n; 
          phases CN; 
          length 86.618164; 
          configuration SystemCnstDefaultCN__1/0 Triplex; 
          } 

object node {name   span_13212_n; phases CN; nominal_voltage 120;  } 

object overhead_line {
          name   span_13213; 
          from   T6459083_n; 
          to     span_13213_n; 
          phases CN; 
          length 151.64374; 
          configuration SystemCnstDefaultCN__1/0 Triplex; 
          } 

object node {name   span_13213_n; phases CN; nominal_voltage 120;  } 

object transformer {
          name   T6459082; 
          from   span_47460_n; 
          to     T6459082_n; 
          phases CN; 
          configuration SINGLE_PHASE-_15-7200000To120000V; 
          } 

object node {name   T6459082_n; phases CN; nominal_voltage 120000;  } 

object overhead_line {
          name   span_47462; 
          from   T6459082_n; 
          to     span_47462_n; 
          phases CN; 
          length 71.860916; 
          configuration SystemCnstDefaultCN__1/0 Triplex; 
          } 

object node {name   span_47462_n; phases CN; nominal_voltage 120000;  } 

object overhead_line {
          name   span_47463; 
          from   T6459082_n; 
          to     span_47463_n; 
          phases CN; 
          length 53.378441; 
          configuration SystemCnstDefaultCN__1/0 Triplex; 
          } 

object node {name   span_47463_n; phases CN; nominal_voltage 120000;  } 

object transformer {
          name   T6459306; 
          from   span_1807_n; 
          to     T6459306_n; 
          phases CN; 
          configuration SINGLE_PHASE--7200To120V; 
          } 

object node {name   T6459306_n; phases CN; nominal_voltage 120;  } 

object fuse {
          name          F64-31-12; 
          from          span_1806_n; 
          to            F64-31-12_n; 
          phases        BN; 
          current_limit 119.95905; 
          mean_replacement_time 1.0 ; 
          repair_dist_type      NONE; 
          } 

object node {name   F64-31-12_n; phases BN; nominal_voltage 7200;  } 

object overhead_line {
          name   span_47431; 
          from   F64-31-12_n; 
          to     span_47431_n; 
          phases BN; 
          length 95; 
          configuration SystemCnstDefaultBN__1/0 AC; 
          } 

object node {name   span_47431_n; phases BN; nominal_voltage 7200;  } 

object overhead_line {
          name   span_47432; 
          from   span_47431_n; 
          to     span_47432_n; 
          phases BN; 
          length 81; 
          configuration SystemCnstDefaultBN__1/0 AC; 
          } 

object node {name   span_47432_n; phases BN; nominal_voltage 7200;  } 

object overhead_line {
          name   span_10187; 
          from   span_47432_n; 
          to     span_10187_n; 
          phases BN; 
          length 53.955017; 
          configuration SystemCnstDefaultBN__1/0 AC; 
          } 

object node {name   span_10187_n; phases BN; nominal_voltage 7200;  } 

object overhead_line {
          name   span_10188; 
          from   span_10187_n; 
          to     span_10188_n; 
          phases BN; 
          length 104.69677; 
          configuration SystemCnstDefaultBN__1/0 AC; 
          } 

object node {name   span_10188_n; phases BN; nominal_voltage 7200;  } 

object overhead_line {
          name   span_47442; 
          from   span_10188_n; 
          to     span_47442_n; 
          phases BN; 
          length 126; 
          configuration SystemCnstDefaultBN__1/0 AC; 
          } 

object node {name   span_47442_n; phases BN; nominal_voltage 7200;  } 

object transformer {
          name   T6459098; 
          from   span_47442_n; 
          to     T6459098_n; 
          phases BN; 
          configuration SINGLE_PHASE-_15-7200000To120000V; 
          } 

object node {name   T6459098_n; phases BN; nominal_voltage 120000;  } 

object overhead_line {
          name   span_47444; 
          from   T6459098_n; 
          to     span_47444_n; 
          phases BN; 
          length 138.0567; 
          configuration SystemCnstDefaultBN__1/0 Triplex; 
          } 

object node {name   span_47444_n; phases BN; nominal_voltage 120000;  } 

object overhead_line {
          name   span_47445; 
          from   span_47444_n; 
          to     span_47445_n; 
          phases BN; 
          length 24.747627; 
          configuration SystemCnstDefaultBN__1/0 Triplex; 
          } 

object node {name   span_47445_n; phases BN; nominal_voltage 120000;  } 

object overhead_line {
          name   span_47443; 
          from   T6459098_n; 
          to     span_47443_n; 
          phases BN; 
          length 55.065773; 
          configuration SystemCnstDefaultBN__1/0 Triplex; 
          } 

object node {name   span_47443_n; phases BN; nominal_voltage 120000;  } 

object overhead_line {
          name   span_47446; 
          from   span_47442_n; 
          to     span_47446_n; 
          phases BN; 
          length 78; 
          configuration SystemCnstDefaultBN__1/0 AC; 
          } 

object node {name   span_47446_n; phases BN; nominal_voltage 7200;  } 

object transformer {
          name   T6459099; 
          from   span_47446_n; 
          to     T6459099_n; 
          phases BN; 
          configuration SINGLE_PHASE-_15-7200000To120000V; 
          } 

object node {name   T6459099_n; phases BN; nominal_voltage 120000;  } 

object overhead_line {
          name   span_47449; 
          from   T6459099_n; 
          to     span_47449_n; 
          phases BN; 
          length 80.957092; 
          configuration SystemCnstDefaultBN__1/0 Triplex; 
          } 

object node {name   span_47449_n; phases BN; nominal_voltage 120000;  } 

object overhead_line {
          name   span_47480; 
          from   fake_g_60_n; 
          to     span_47480_n; 
          phases ABCN; 
          length 71.689201; 
          configuration SystemCnstDefaultABCN__1/0 Triplex; 
          } 

object node {name   span_47480_n; phases ABCN; nominal_voltage 120000;  } 

object overhead_line {
          name   span_47347; 
          from   span_1807_n; 
          to     span_47347_n; 
          phases ACN; 
          length 184; 
          configuration SystemCnstDefaultACN__1/0 AC; 
          } 

object node {name   span_47347_n; phases ACN; nominal_voltage 7200;  } 

object overhead_line {
          name   span_47348; 
          from   span_47347_n; 
          to     span_47348_n; 
          phases ACN; 
          length 156; 
          configuration SystemCnstDefaultACN__1/0 AC; 
          } 

object node {name   span_47348_n; phases ACN; nominal_voltage 7200;  } 

object overhead_line {
          name   span_47346; 
          from   span_47348_n; 
          to     span_47346_n; 
          phases ACN; 
          length 241; 
          configuration SystemCnstDefaultACN__1/0 AC; 
          } 

object node {name   span_47346_n; phases ACN; nominal_voltage 7200;  } 

object overhead_line {
          name   span_10163; 
          from   span_47346_n; 
          to     span_10163_n; 
          phases ACN; 
          length 59.757122; 
          configuration SystemCnstDefaultACN__1/0 AC; 
          } 

object node {name   span_10163_n; phases ACN; nominal_voltage 7200;  } 

object overhead_line {
          name   span_10164; 
          from   span_10163_n; 
          to     span_10164_n; 
          phases ACN; 
          length 160.84724; 
          configuration SystemCnstDefaultACN__1/0 AC; 
          } 

object node {name   span_10164_n; phases ACN; nominal_voltage 7200;  } 

object transformer {
          name   T6459080; 
          from   span_10164_n; 
          to     T6459080_n; 
          phases AN; 
          configuration SINGLE_PHASE-_15-7200000To120000V; 
          } 

object node {name   T6459080_n; phases AN; nominal_voltage 120000;  } 

object overhead_line {
          name   span_47457; 
          from   T6459080_n; 
          to     span_47457_n; 
          phases AN; 
          length 84.919319; 
          configuration SystemCnstDefaultAN__1/0 Triplex; 
          } 

object node {name   span_47457_n; phases AN; nominal_voltage 120000;  } 

object overhead_line {
          name   span_47459; 
          from   span_47457_n; 
          to     span_47459_n; 
          phases AN; 
          length 41.61079; 
          configuration SystemCnstDefaultAN__1/0 Triplex; 
          } 

object node {name   span_47459_n; phases AN; nominal_voltage 120000;  } 

object overhead_line {
          name   span_47458; 
          from   span_47457_n; 
          to     span_47458_n; 
          phases AN; 
          length 26.374926; 
          configuration SystemCnstDefaultAN__1/0 Triplex; 
          } 

object node {name   span_47458_n; phases AN; nominal_voltage 120000;  } 

object overhead_line {
          name   span_48594; 
          from   T6459080_n; 
          to     span_48594_n; 
          phases AN; 
          length 69.344345; 
          configuration SystemCnstDefaultAN__1/0 Triplex; 
          } 

object node {name   span_48594_n; phases AN; nominal_voltage 120000;  } 

object overhead_line {
          name   span_48595; 
          from   span_48594_n; 
          to     span_48595_n; 
          phases AN; 
          length 50.279289; 
          configuration SystemCnstDefaultAN__1/0 Triplex; 
          } 

object node {name   span_48595_n; phases AN; nominal_voltage 120000;  } 

object overhead_line {
          name   span_47456; 
          from   T6459080_n; 
          to     span_47456_n; 
          phases AN; 
          length 63.259502; 
          configuration SystemCnstDefaultAN__1/0 Triplex; 
          } 

object node {name   span_47456_n; phases AN; nominal_voltage 120000;  } 

object overhead_line {
          name   span_47460; 
          from   span_10164_n; 
          to     span_47460_n; 
          phases ACN; 
          length 133; 
          configuration SystemCnstDefaultACN__1/0 AC; 
          } 

object node {name   span_47460_n; phases ACN; nominal_voltage 7200;  } 

object overhead_line {
          name   span_47461; 
          from   span_47460_n; 
          to     span_47461_n; 
          phases ACN; 
          length 140; 
          configuration SystemCnstDefaultACN__1/0 AC; 
          } 

object node {name   span_47461_n; phases ACN; nominal_voltage 7200;  } 

object overhead_line {
          name   span_6553; 
          from   span_47461_n; 
          to     span_6553_n; 
          phases ACN; 
          length 162.59206; 
          configuration SystemCnstDefaultACN__1/0 AC; 
          } 

object node {name   span_6553_n; phases ACN; nominal_voltage 7200;  } 

object fuse {
          name          F64-31-4; 
          from          span_6553_n; 
          to            F64-31-4_n; 
          phases        ACN; 
          current_limit 45.00544; 
          mean_replacement_time 1.0 ; 
          repair_dist_type      NONE; 
          } 

object node {name   F64-31-4_n; phases ACN; nominal_voltage 7200;  } 

object underground_line {
          name   span_47465; 
          from   F64-31-4_n; 
          to     span_47465_n; 
          phases ACN; 
          length 183; 
          configuration SystemCnstDefaultAC__1/0 URD; 
          } 

object node {name   span_47465_n; phases ACN; nominal_voltage 7200;  } 

object underground_line {
          name   span_47466; 
          from   span_47465_n; 
          to     span_47466_n; 
          phases ACN; 
          length 95; 
          configuration SystemCnstDefaultAC__1/0 URD; 
          } 

object node {name   span_47466_n; phases ACN; nominal_voltage 7200;  } 

object transformer {
          name   T6459428; 
          from   span_47466_n; 
          to     T6459428_n; 
          phases ACN; 
          configuration WYE_WYE-_15x2-7200000To120000V; 
          } 

object node {name   T6459428_n; phases ACN; nominal_voltage 120000;  } 

object underground_line {
          name   span_47464; 
          from   T6459428_n; 
          to     span_47464_n; 
          phases AN; 
          length 58.793869; 
          configuration SystemCnstDefaultA__4/0AL UG; 
          } 

object node {name   span_47464_n; phases AN; nominal_voltage 120000;  } 

object transformer {
          name   T6459319; 
          from   span_47465_n; 
          to     T6459319_n; 
          phases CN; 
          configuration SINGLE_PHASE-_15-7200000To120000V; 
          } 

object node {name   T6459319_n; phases CN; nominal_voltage 120000;  } 

object underground_line {
          name   span_47468; 
          from   T6459319_n; 
          to     span_47468_n; 
          phases CN; 
          length 121.56961; 
          configuration SystemCnstDefaultC__4/0AL UG; 
          } 

object node {name   span_47468_n; phases CN; nominal_voltage 120000;  } 

object underground_line {
          name   span_47467; 
          from   T6459319_n; 
          to     span_47467_n; 
          phases CN; 
          length 78.182304; 
          configuration SystemCnstDefaultC__4/0AL UG; 
          } 

object node {name   span_47467_n; phases CN; nominal_voltage 120000;  } 

object transformer {
          name   T6459086; 
          from   span_6553_n; 
          to     T6459086_n; 
          phases CN; 
          configuration SINGLE_PHASE-_15-7200To120V; 
          } 

object node {name   T6459086_n; phases CN; nominal_voltage 120;  } 

object overhead_line {
          name   span_13125; 
          from   T6459086_n; 
          to     span_13125_n; 
          phases CN; 
          length 48.032661; 
          configuration SystemCnstDefaultCN__1/0 Triplex; 
          } 

object node {name   span_13125_n; phases CN; nominal_voltage 120;  } 

object overhead_line {
          name   span_13214; 
          from   T6459086_n; 
          to     span_13214_n; 
          phases CN; 
          length 92.606216; 
          configuration SystemCnstDefaultCN__1/0 Triplex; 
          } 

object node {name   span_13214_n; phases CN; nominal_voltage 120;  } 

object fuse {
          name          F64-31-26; 
          from          span_6553_n; 
          to            F64-31-26_n; 
          phases        CN; 
          current_limit 119.95905; 
          mean_replacement_time 1.0 ; 
          repair_dist_type      NONE; 
          } 

object node {name   F64-31-26_n; phases CN; nominal_voltage 7200;  } 

object overhead_line {
          name   span_8286; 
          from   F64-31-26_n; 
          to     span_8286_n; 
          phases CN; 
          length 158.68484; 
          configuration SystemCnstDefaultCN__4/0 AC; 
          } 

object node {name   span_8286_n; phases CN; nominal_voltage 7200;  } 

object overhead_line {
          name   span_8287; 
          from   span_8286_n; 
          to     span_8287_n; 
          phases CN; 
          length 184.05846; 
          configuration SystemCnstDefaultCN__4/0 AC; 
          } 

object node {name   span_8287_n; phases CN; nominal_voltage 7200;  } 

object overhead_line {
          name   span_4540; 
          from   span_8287_n; 
          to     span_4540_n; 
          phases CN; 
          length 188.34296; 
          configuration SystemCnstDefaultCN__4/0 AC; 
          } 

object node {name   span_4540_n; phases CN; nominal_voltage 7200;  } 

object fuse {
          name          F64-31-27; 
          from          span_4540_n; 
          to            F64-31-27_n; 
          phases        CN; 
          current_limit 45.00544; 
          mean_replacement_time 1.0 ; 
          repair_dist_type      NONE; 
          } 

object node {name   F64-31-27_n; phases CN; nominal_voltage 7200;  } 

object underground_line {
          name   span_17105; 
          from   F64-31-27_n; 
          to     span_17105_n; 
          phases CN; 
          length 45.601635; 
          configuration SystemCnstDefaultC__1/0 URD; 
          } 

object node {name   span_17105_n; phases CN; nominal_voltage 7200;  } 

object transformer {
          name   T6459125; 
          from   span_17105_n; 
          to     T6459125_n; 
          phases CN; 
          configuration SINGLE_PHASE-_15-7200000To120000V; 
          } 

object node {name   T6459125_n; phases CN; nominal_voltage 120000;  } 

object underground_line {
          name   span_47475; 
          from   T6459125_n; 
          to     span_47475_n; 
          phases CN; 
          length 56.104664; 
          configuration SystemCnstDefaultC__4/0AL UG; 
          } 

object node {name   span_47475_n; phases CN; nominal_voltage 120000;  } 

object node {name   span_45828_n; phases CN; nominal_voltage 120;  } 

object overhead_line {
          name   span_45819; 
          from   T6459143_n; 
          to     span_45819_n; 
          phases CN; 
          length 51.798267; 
          configuration SystemCnstDefaultCN__1/0 Triplex; 
          } 

object node {name   span_45819_n; phases CN; nominal_voltage 120;  } 

object overhead_line {
          name   span_45821; 
          from   span_45819_n; 
          to     span_45821_n; 
          phases CN; 
          length 91.826401; 
          configuration SystemCnstDefaultCN__1/0 Triplex; 
          } 

object node {name   span_45821_n; phases CN; nominal_voltage 120;  } 

object overhead_line {
          name   span_45820; 
          from   span_45819_n; 
          to     span_45820_n; 
          phases CN; 
          length 98.323868; 
          configuration SystemCnstDefaultCN__1/0 Triplex; 
          } 

object node {name   span_45820_n; phases CN; nominal_voltage 120;  } 

object transformer {
          name   T6459157; 
          from   span_47505_n; 
          to     T6459157_n; 
          phases CN; 
          configuration SINGLE_PHASE-_15-7200000To120000V; 
          } 

object node {name   T6459157_n; phases CN; nominal_voltage 120000;  } 

object overhead_line {
          name   span_47966; 
          from   T6459157_n; 
          to     span_47966_n; 
          phases CN; 
          length 24.554689; 
          configuration SystemCnstDefaultCN__1/0 Triplex; 
          } 

object node {name   span_47966_n; phases CN; nominal_voltage 120000;  } 

object overhead_line {
          name   span_47496; 
          from   span_6725_n; 
          to     span_47496_n; 
          phases BCN; 
          length 265; 
          configuration SystemCnstDefaultBCN__1/0 AC; 
          } 

object node {name   span_47496_n; phases BCN; nominal_voltage 7200;  } 

object transformer {
          name   T6459159; 
          from   span_47496_n; 
          to     T6459159_n; 
          phases BCN; 
          configuration WYE_WYE-ave__25-_10-7200000To120000V; 
          } 

object node {name   T6459159_n; phases BCN; nominal_voltage 120000;  } 

object overhead_line {
          name   span_12312; 
          from   T6459159_n; 
          to     span_12312_n; 
          phases BN; 
          length 104.3289; 
          configuration SystemCnstDefaultBN__1/0 Triplex; 
          } 

object node {name   span_12312_n; phases BN; nominal_voltage 120000;  } 

object overhead_line {
          name   span_45812; 
          from   span_12312_n; 
          to     span_45812_n; 
          phases BN; 
          length 24.301132; 
          configuration SystemCnstDefaultBN__1/0 Triplex; 
          } 

object node {name   span_45812_n; phases BN; nominal_voltage 120000;  } 

object overhead_line {
          name   span_47500; 
          from   T6459159_n; 
          to     span_47500_n; 
          phases BN; 
          length 70.988731; 
          configuration SystemCnstDefaultBN__1/0 Triplex; 
          } 

object node {name   span_47500_n; phases BN; nominal_voltage 120000;  } 

object underground_line {
          name   span_118374; 
          from   serv_68381_n; 
          to     span_118374_n; 
          phases BN; 
          length 101.78172; 
          configuration SystemCnstDefaultB__4/0AL UG; 
          } 

object node {name   span_118374_n; phases BN; nominal_voltage 120000;  } 

object overhead_line {
          name   span_47498; 
          from   T6459159_n; 
          to     span_47498_n; 
          phases BN; 
          length 129.10504; 
          configuration SystemCnstDefaultBN__1/0 Triplex; 
          } 

object node {name   span_47498_n; phases BN; nominal_voltage 120000;  } 

object overhead_line {
          name   span_118375; 
          from   span_47498_n; 
          to     span_118375_n; 
          phases BN; 
          length 70.815735; 
          configuration SystemCnstDefaultBN__1/0 Triplex; 
          } 

object node {name   span_118375_n; phases BN; nominal_voltage 120000;  } 

object overhead_line {
          name   span_47499; 
          from   T6459159_n; 
          to     span_47499_n; 
          phases BN; 
          length 129.05965; 
          configuration SystemCnstDefaultBN__1/0 Triplex; 
          } 

object node {name   span_47499_n; phases BN; nominal_voltage 120000;  } 

object overhead_line {
          name   span_47502; 
          from   span_47499_n; 
          to     span_47502_n; 
          phases BN; 
          length 64.833; 
          configuration SystemCnstDefaultBN__1/0 Triplex; 
          } 

object node {name   span_47502_n; phases BN; nominal_voltage 120000;  } 

object fuse {
          name          F67-6-15; 
          from          span_47484_n; 
          to            F67-6-15_n; 
          phases        BN; 
          current_limit 45.00544; 
          mean_replacement_time 1.0 ; 
          repair_dist_type      NONE; 
          } 

object node {name   F67-6-15_n; phases BN; nominal_voltage 7200;  } 

object overhead_line {
          name   span_47489; 
          from   F67-6-15_n; 
          to     span_47489_n; 
          phases BN; 
          length 135; 
          configuration SystemCnstDefaultBN__1/0 AC; 
          } 

object node {name   span_47489_n; phases BN; nominal_voltage 7200;  } 

object transformer {
          name   T6459152; 
          from   span_47489_n; 
          to     T6459152_n; 
          phases BN; 
          configuration SINGLE_PHASE-_15-7200000To120000V; 
          } 

object node {name   T6459152_n; phases BN; nominal_voltage 120000;  } 

object overhead_line {
          name   span_47492; 
          from   T6459152_n; 
          to     span_47492_n; 
          phases BN; 
          length 55.759621; 
          configuration SystemCnstDefaultBN__1/0 Triplex; 
          } 

object node {name   span_47492_n; phases BN; nominal_voltage 120000;  } 

object overhead_line {
          name   span_47491; 
          from   T6459152_n; 
          to     span_47491_n; 
          phases BN; 
          length 51.737827; 
          configuration SystemCnstDefaultBN__1/0 Triplex; 
          } 

object node {name   span_47491_n; phases BN; nominal_voltage 120000;  } 

object overhead_line {
          name   span_47490; 
          from   span_47489_n; 
          to     span_47490_n; 
          phases BN; 
          length 97; 
          configuration SystemCnstDefaultBN__1/0 AC; 
          } 

object node {name   span_47490_n; phases BN; nominal_voltage 7200;  } 

object fuse {
          name          F67-6-39; 
          from          span_47490_n; 
          to            F67-6-39_n; 
          phases        BN; 
          current_limit 19.168053; 
          mean_replacement_time 1.0 ; 
          repair_dist_type      NONE; 
          } 

object node {name   F67-6-39_n; phases BN; nominal_voltage 7200;  } 

object underground_line {
          name   span_18055; 
          from   F67-6-39_n; 
          to     span_18055_n; 
          phases BN; 
          length 119.98914; 
          configuration SystemCnstDefaultB__1/0 URD; 
          } 

object node {name   span_18055_n; phases BN; nominal_voltage 7200;  } 

object transformer {
          name   T6459547; 
          from   span_18055_n; 
          to     T6459547_n; 
          phases BN; 
          configuration SINGLE_PHASE-_15-7200To120V; 
          } 

object node {name   T6459547_n; phases BN; nominal_voltage 120;  } 

object underground_line {
          name   span_22383; 
          from   T6459547_n; 
          to     span_22383_n; 
          phases BN; 
          length 51.210964; 
          configuration SystemCnstDefaultB__1/0AL UD; 
          } 

object node {name   span_22383_n; phases BN; nominal_voltage 120;  } 

object transformer {
          name   tran_10402; 
          from   span_47483_n; 
          to     tran_10402_n; 
          phases BCN; 
          configuration WYE_WYE-_15x2-7200000To120000V; 
          } 

object node {name   tran_10402_n; phases BCN; nominal_voltage 120000;  } 

object overhead_line {
          name   span_47487; 
          from   tran_10402_n; 
          to     span_47487_n; 
          phases BCN; 
          length 46.412857; 
          configuration SystemCnstDefaultBCN__1/0 Triplex; 
          } 

object node {name   span_47487_n; phases BCN; nominal_voltage 120000;  } 

object transformer {
          name   T6459101; 
          from   span_10160_n; 
          to     T6459101_n; 
          phases CN; 
          configuration SINGLE_PHASE-_15-7200000To120000V; 
          } 

object node {name   T6459101_n; phases CN; nominal_voltage 120000;  } 

object overhead_line {
          name   span_47452; 
          from   T6459101_n; 
          to     span_47452_n; 
          phases CN; 
          length 75.89241; 
          configuration SystemCnstDefaultCN__1/0 Triplex; 
          } 

object node {name   span_47452_n; phases CN; nominal_voltage 120000;  } 

object overhead_line {
          name   span_47454; 
          from   span_47452_n; 
          to     span_47454_n; 
          phases CN; 
          length 46.378056; 
          configuration SystemCnstDefaultCN__1/0 Triplex; 
          } 

object node {name   span_47454_n; phases CN; nominal_voltage 120000;  } 

object overhead_line {
          name   span_47453; 
          from   span_47452_n; 
          to     span_47453_n; 
          phases CN; 
          length 47.817444; 
          configuration SystemCnstDefaultCN__1/0 Triplex; 
          } 

object node {name   span_47453_n; phases CN; nominal_voltage 120000;  } 

object transformer {
          name   T6459107; 
          from   span_8299_n; 
          to     T6459107_n; 
          phases AN; 
          configuration SINGLE_PHASE-_15-7200000To120000V; 
          } 

object node {name   T6459107_n; phases AN; nominal_voltage 120000;  } 

object overhead_line {
          name   span_47481; 
          from   T6459107_n; 
          to     span_47481_n; 
          phases AN; 
          length 32.377663; 
          configuration SystemCnstDefaultAN__1/0 Triplex; 
          } 

object node {name   span_47481_n; phases AN; nominal_voltage 120000;  } 

object transformer {
          name   tran_10399; 
          from   span_51963_n; 
          to     tran_10399_n; 
          phases CN; 
          configuration SINGLE_PHASE-_15-7200000To120000V; 
          } 

object node {name   tran_10399_n; phases CN; nominal_voltage 120000;  } 

object node {name   fake_g_60_n; parent tran_10399_n; phases ABCN; nominal_voltage 120000;  } 

object node {name   span_14118_n; phases CN; nominal_voltage 7200;  } 

object transformer {
          name   T6459327; 
          from   span_14118_n; 
          to     T6459327_n; 
          phases CN; 
          configuration SINGLE_PHASE-_15-7200To120V; 
          } 

object node {name   T6459327_n; phases CN; nominal_voltage 120;  } 

object underground_line {
          name   span_22478; 
          from   T6459327_n; 
          to     span_22478_n; 
          phases CN; 
          length 38.844482; 
          configuration SystemCnstDefaultC__1/0AL UD; 
          } 

object node {name   span_22478_n; phases CN; nominal_voltage 120;  } 

object overhead_line {
          name   span_10155; 
          from   span_10160_n; 
          to     span_10155_n; 
          phases ABCN; 
          length 99.383659; 
          configuration SystemCnstDefaultABCN__4/0 AC; 
          } 

object node {name   span_10155_n; phases ABCN; nominal_voltage 7200;  } 

object overhead_line {
          name   span_10154; 
          from   span_10155_n; 
          to     span_10154_n; 
          phases ABCN; 
          length 87.235123; 
          configuration SystemCnstDefaultABCN__4/0 AC; 
          } 

object node {name   span_10154_n; phases ABCN; nominal_voltage 7200;  } 

object overhead_line {
          name   span_1809; 
          from   span_10154_n; 
          to     span_1809_n; 
          phases ABCN; 
          length 196.55833; 
          configuration SystemCnstDefaultABCN__4/0 AC; 
          } 

object node {name   span_1809_n; phases ABCN; nominal_voltage 7200;  } 

object underground_line {
          name   span_45804; 
          from   span_1809_n; 
          to     span_45804_n; 
          phases ABCN; 
          length 36.331291; 
          configuration SystemCnstDefaultABC__4/0 URD; 
          } 

object node {name   span_45804_n; phases ABCN; nominal_voltage 7200;  } 

object switch {
          name   N67-6--A; 
          from   span_45804_n; 
          to     span_10152_n; 
          phases ABCN; 
          status OPEN; 
          } 

object switch {
          name   A67-6-A; 
          from   span_45804_n; 
          to     span_1809_n; 
          phases ABCN; 
          status OPEN; 
          } 

object fuse {
          name          F67-6-13; 
          from          span_10154_n; 
          to            F67-6-13_n; 
          phases        BCN; 
          current_limit 119.95905; 
          mean_replacement_time 1.0 ; 
          repair_dist_type      NONE; 
          } 

object node {name   F67-6-13_n; phases BCN; nominal_voltage 7200;  } 

object overhead_line {
          name   span_47483; 
          from   F67-6-13_n; 
          to     span_47483_n; 
          phases BCN; 
          length 107; 
          configuration SystemCnstDefaultBCN__1/0 AC; 
          } 

object node {name   span_47483_n; phases BCN; nominal_voltage 7200;  } 

object overhead_line {
          name   span_47484; 
          from   span_47483_n; 
          to     span_47484_n; 
          phases BCN; 
          length 164; 
          configuration SystemCnstDefaultBCN__1/0 AC; 
          } 

object node {name   span_47484_n; phases BCN; nominal_voltage 7200;  } 

object transformer {
          name   T6459423; 
          from   span_47484_n; 
          to     T6459423_n; 
          phases BN; 
          configuration SINGLE_PHASE-_15-7200000To120000V; 
          } 

object node {name   T6459423_n; phases BN; nominal_voltage 120000;  } 

object overhead_line {
          name   span_47488; 
          from   T6459423_n; 
          to     span_47488_n; 
          phases BN; 
          length 58.040802; 
          configuration SystemCnstDefaultBN__1/0 Triplex; 
          } 

object node {name   span_47488_n; phases BN; nominal_voltage 120000;  } 

object overhead_line {
          name   span_6726; 
          from   span_47484_n; 
          to     span_6726_n; 
          phases BCN; 
          length 206.61148; 
          configuration SystemCnstDefaultBCN__1/0 AC; 
          } 

object node {name   span_6726_n; phases BCN; nominal_voltage 7200;  } 

object transformer {
          name   T6459154; 
          from   span_6726_n; 
          to     T6459154_n; 
          phases BN; 
          configuration SINGLE_PHASE-_15-7200000To120000V; 
          } 

object node {name   T6459154_n; phases BN; nominal_voltage 120000;  } 

object overhead_line {
          name   span_47493; 
          from   T6459154_n; 
          to     span_47493_n; 
          phases BN; 
          length 108.7662; 
          configuration SystemCnstDefaultBN__1/0 Triplex; 
          } 

object node {name   span_47493_n; phases BN; nominal_voltage 120000;  } 

object overhead_line {
          name   span_47495; 
          from   T6459154_n; 
          to     span_47495_n; 
          phases BN; 
          length 57.388981; 
          configuration SystemCnstDefaultBN__1/0 Triplex; 
          } 

object node {name   span_47495_n; phases BN; nominal_voltage 120000;  } 

object overhead_line {
          name   span_47494; 
          from   T6459154_n; 
          to     span_47494_n; 
          phases BN; 
          length 32.647301; 
          configuration SystemCnstDefaultBN__1/0 Triplex; 
          } 

object node {name   span_47494_n; phases BN; nominal_voltage 120000;  } 

object overhead_line {
          name   span_6725; 
          from   span_6726_n; 
          to     span_6725_n; 
          phases BCN; 
          length 163.71071; 
          configuration SystemCnstDefaultBCN__1/0 AC; 
          } 

object node {name   span_6725_n; phases BCN; nominal_voltage 7200;  } 

object overhead_line {
          name   span_47505; 
          from   span_6725_n; 
          to     span_47505_n; 
          phases BCN; 
          length 117; 
          configuration SystemCnstDefaultBCN__1/0 AC; 
          } 

object node {name   span_47505_n; phases BCN; nominal_voltage 7200;  } 

object overhead_line {
          name   span_47506; 
          from   span_47505_n; 
          to     span_47506_n; 
          phases BCN; 
          length 230; 
          configuration SystemCnstDefaultBCN__1/0 AC; 
          } 

object node {name   span_47506_n; phases BCN; nominal_voltage 7200;  } 

object underground_line {
          name   span_17099; 
          from   span_47506_n; 
          to     span_17099_n; 
          phases BN; 
          length 18.13649; 
          configuration SystemCnstDefaultB__1/0 URD; 
          } 

object node {name   span_17099_n; phases BN; nominal_voltage 7200;  } 

object fuse {
          name          F64-31-24; 
          from          span_17099_n; 
          to            F64-31-24_n; 
          phases        BN; 
          current_limit 45.00544; 
          mean_replacement_time 1.0 ; 
          repair_dist_type      NONE; 
          } 

object node {name   F64-31-24_n; phases BN; nominal_voltage 7200;  } 

object underground_line {
          name   span_17100; 
          from   F64-31-24_n; 
          to     span_17100_n; 
          phases BN; 
          length 195.09016; 
          configuration SystemCnstDefaultB__1/0 URD; 
          } 

object node {name   span_17100_n; phases BN; nominal_voltage 7200;  } 

object transformer {
          name   T6459533; 
          from   span_17100_n; 
          to     T6459533_n; 
          phases BN; 
          configuration SINGLE_PHASE-_15-7200To120V; 
          } 

object node {name   T6459533_n; phases BN; nominal_voltage 120;  } 

object underground_line {
          name   span_22384; 
          from   T6459533_n; 
          to     span_22384_n; 
          phases BN; 
          length 25.087822; 
          configuration SystemCnstDefaultB__1/0AL UD; 
          } 

object node {name   span_22384_n; phases BN; nominal_voltage 120;  } 

object transformer {
          name   T6459143; 
          from   span_47506_n; 
          to     T6459143_n; 
          phases CN; 
          configuration SINGLE_PHASE-_37_D3_5-7200To120V; 
          } 

object node {name   T6459143_n; phases CN; nominal_voltage 120;  } 

object overhead_line {
          name   span_24828; 
          from   T6459143_n; 
          to     span_24828_n; 
          phases CN; 
          length 59.424816; 
          configuration SystemCnstDefaultCN__1/0 Triplex; 
          } 

object node {name   span_24828_n; phases CN; nominal_voltage 120;  } 

object overhead_line {
          name   span_45852; 
          from   T6459143_n; 
          to     span_45852_n; 
          phases CN; 
          length 163.56364; 
          configuration SystemCnstDefaultCN__1/0 Triplex; 
          } 

object node {name   span_45852_n; phases CN; nominal_voltage 120;  } 

object overhead_line {
          name   span_45878; 
          from   span_45852_n; 
          to     span_45878_n; 
          phases CN; 
          length 83.297073; 
          configuration SystemCnstDefaultCN__1/0 Triplex; 
          } 

object node {name   span_45878_n; phases CN; nominal_voltage 120;  } 

object overhead_line {
          name   span_45879; 
          from   span_45878_n; 
          to     span_45879_n; 
          phases CN; 
          length 58.639194; 
          configuration SystemCnstDefaultCN__1/0 Triplex; 
          } 

object node {name   span_45879_n; phases CN; nominal_voltage 120;  } 

object overhead_line {
          name   span_45853; 
          from   span_45852_n; 
          to     span_45853_n; 
          phases CN; 
          length 73.648338; 
          configuration SystemCnstDefaultCN__1/0 Triplex; 
          } 

object node {name   span_45853_n; phases CN; nominal_voltage 120;  } 

object overhead_line {
          name   span_45823; 
          from   T6459143_n; 
          to     span_45823_n; 
          phases CN; 
          length 80.580635; 
          configuration SystemCnstDefaultCN__1/0 Triplex; 
          } 

object node {name   span_45823_n; phases CN; nominal_voltage 120;  } 

object overhead_line {
          name   span_45825; 
          from   span_45823_n; 
          to     span_45825_n; 
          phases CN; 
          length 68.862556; 
          configuration SystemCnstDefaultCN__1/0 Triplex; 
          } 

object node {name   span_45825_n; phases CN; nominal_voltage 120;  } 

object overhead_line {
          name   span_45824; 
          from   span_45823_n; 
          to     span_45824_n; 
          phases CN; 
          length 73.793961; 
          configuration SystemCnstDefaultCN__1/0 Triplex; 
          } 

object node {name   span_45824_n; phases CN; nominal_voltage 120;  } 

object overhead_line {
          name   span_45828; 
          from   span_45823_n; 
          to     span_45828_n; 
          phases CN; 
          length 74.645767; 
          configuration SystemCnstDefaultCN__1/0 Triplex; 
          } 

object node {name   span_6362_n; phases ABCN; nominal_voltage 7200;  } 

object overhead_line {
          name   span_3310; 
          from   span_6362_n; 
          to     span_3310_n; 
          phases ABCN; 
          length 263.02405; 
          configuration SystemCnstDefaultABCN__4/0 AC; 
          } 

object node {name   span_3310_n; phases ABCN; nominal_voltage 7200;  } 

object overhead_line {
          name   span_6668; 
          from   C64-31-1_n; 
          to     span_6668_n; 
          phases ABCN; 
          length 39.324726; 
          configuration SystemCnstDefaultABCN__4/0 AC; 
          } 

object node {name   span_6668_n; phases ABCN; nominal_voltage 7200;  } 

object overhead_line {
          name   span_6669; 
          from   span_6668_n; 
          to     span_6669_n; 
          phases ABCN; 
          length 71.294136; 
          configuration SystemCnstDefaultABCN__4/0 AC; 
          } 

object node {name   span_6669_n; phases ABCN; nominal_voltage 7200;  } 

object overhead_line {
          name   span_1805; 
          from   span_6669_n; 
          to     span_1805_n; 
          phases ABCN; 
          length 411.15985; 
          configuration SystemCnstDefaultABCN__4/0 AC; 
          } 

object node {name   span_1805_n; phases ABCN; nominal_voltage 7200;  } 

object overhead_line {
          name   span_47410; 
          from   span_1805_n; 
          to     span_47410_n; 
          phases ABCN; 
          length 49; 
          configuration SystemCnstDefaultABCN__1/0 AC; 
          } 

object node {name   span_47410_n; phases ABCN; nominal_voltage 7200;  } 

object overhead_line {
          name   span_47413; 
          from   span_47410_n; 
          to     span_47413_n; 
          phases ABCN; 
          length 135; 
          configuration SystemCnstDefaultABCN__1/0 AC; 
          } 

object node {name   span_47413_n; phases ABCN; nominal_voltage 7200;  } 

object transformer {
          name   T6459113; 
          from   span_47413_n; 
          to     T6459113_n; 
          phases AN; 
          configuration SINGLE_PHASE-_15-7200000To120000V; 
          } 

object node {name   T6459113_n; phases AN; nominal_voltage 120000;  } 

object overhead_line {
          name   span_47415; 
          from   T6459113_n; 
          to     span_47415_n; 
          phases AN; 
          length 41.119831; 
          configuration SystemCnstDefaultAN__1/0 Triplex; 
          } 

object node {name   span_47415_n; phases AN; nominal_voltage 120000;  } 

object overhead_line {
          name   span_47416; 
          from   T6459113_n; 
          to     span_47416_n; 
          phases AN; 
          length 60.535446; 
          configuration SystemCnstDefaultAN__1/0 Triplex; 
          } 

object node {name   span_47416_n; phases AN; nominal_voltage 120000;  } 

object overhead_line {
          name   span_47417; 
          from   span_47416_n; 
          to     span_47417_n; 
          phases AN; 
          length 40.971817; 
          configuration SystemCnstDefaultAN__1/0 Triplex; 
          } 

object node {name   span_47417_n; phases AN; nominal_voltage 120000;  } 

object overhead_line {
          name   span_47418; 
          from   span_47416_n; 
          to     span_47418_n; 
          phases AN; 
          length 43.098286; 
          configuration SystemCnstDefaultAN__1/0 Triplex; 
          } 

object node {name   span_47418_n; phases AN; nominal_voltage 120000;  } 

object overhead_line {
          name   span_47419; 
          from   span_47418_n; 
          to     span_47419_n; 
          phases AN; 
          length 74.627174; 
          configuration SystemCnstDefaultAN__1/0 Triplex; 
          } 

object node {name   span_47419_n; phases AN; nominal_voltage 120000;  } 

object overhead_line {
          name   span_47414; 
          from   span_47413_n; 
          to     span_47414_n; 
          phases ABCN; 
          length 77; 
          configuration SystemCnstDefaultABCN__1/0 AC; 
          } 

object node {name   span_47414_n; phases ABCN; nominal_voltage 7200;  } 

object transformer {
          name   T6459116; 
          from   span_47414_n; 
          to     T6459116_n; 
          phases ABCN; 
          configuration WYE_WYE-_15x3-7200000To120000V; 
          } 

object node {name   T6459116_n; phases ABCN; nominal_voltage 120000;  } 

object overhead_line {
          name   span_47421; 
          from   T6459116_n; 
          to     span_47421_n; 
          phases ABCN; 
          length 88.673973; 
          configuration SystemCnstDefaultABCN__1/0 Triplex; 
          } 

object node {name   span_47421_n; phases ABCN; nominal_voltage 120000;  } 

object transformer {
          name   tran_10377; 
          from   span_47414_n; 
          to     tran_10377_n; 
          phases BN; 
          configuration SINGLE_PHASE-_15-7200000To120000V; 
          } 

object node {name   tran_10377_n; phases BN; nominal_voltage 120000;  } 

object overhead_line {
          name   span_47420; 
          from   tran_10377_n; 
          to     span_47420_n; 
          phases BN; 
          length 72.911339; 
          configuration SystemCnstDefaultBN__1/0 Triplex; 
          } 

object node {name   span_47420_n; phases BN; nominal_voltage 120000;  } 

object transformer {
          name   T6459112; 
          from   span_47410_n; 
          to     T6459112_n; 
          phases AN; 
          configuration SINGLE_PHASE-_15-7200000To120000V; 
          } 

object node {name   T6459112_n; phases AN; nominal_voltage 120000;  } 

object overhead_line {
          name   span_47411; 
          from   T6459112_n; 
          to     span_47411_n; 
          phases AN; 
          length 152.59973; 
          configuration SystemCnstDefaultAN__1/0 Triplex; 
          } 

object node {name   span_47411_n; phases AN; nominal_voltage 120000;  } 

object overhead_line {
          name   span_47412; 
          from   T6459112_n; 
          to     span_47412_n; 
          phases AN; 
          length 112.75574; 
          configuration SystemCnstDefaultAN__1/0 Triplex; 
          } 

object node {name   span_47412_n; phases AN; nominal_voltage 120000;  } 

object overhead_line {
          name   span_1806; 
          from   span_1805_n; 
          to     span_1806_n; 
          phases ABCN; 
          length 313.84052; 
          configuration SystemCnstDefaultABCN__4/0 AC; 
          } 

object node {name   span_1806_n; phases ABCN; nominal_voltage 7200;  } 

object overhead_line {
          name   span_1807; 
          from   span_1806_n; 
          to     span_1807_n; 
          phases ABCN; 
          length 239.93849; 
          configuration SystemCnstDefaultABCN__4/0 AC; 
          } 

object node {name   span_1807_n; phases ABCN; nominal_voltage 7200;  } 

object overhead_line {
          name   span_51963; 
          from   span_1807_n; 
          to     span_51963_n; 
          phases ABCN; 
          length 221.35304; 
          configuration SystemCnstDefaultABCN__4/0 AC; 
          } 

object node {name   span_51963_n; phases ABCN; nominal_voltage 7200;  } 

object transformer {
          name   T6459088; 
          from   span_51963_n; 
          to     T6459088_n; 
          phases ABCN; 
          configuration WYE_WYE-_15x3-7200000To120000V; 
          } 

object node {name   T6459088_n; phases ABCN; nominal_voltage 120000;  } 

object overhead_line {
          name   span_8301; 
          from   span_51963_n; 
          to     span_8301_n; 
          phases ABCN; 
          length 130.04808; 
          configuration SystemCnstDefaultABCN__4/0 AC; 
          } 

object node {name   span_8301_n; phases ABCN; nominal_voltage 7200;  } 

object overhead_line {
          name   span_8299; 
          from   span_8301_n; 
          to     span_8299_n; 
          phases ABCN; 
          length 96.410225; 
          configuration SystemCnstDefaultABCN__4/0 AC; 
          } 

object node {name   span_8299_n; phases ABCN; nominal_voltage 7200;  } 

object overhead_line {
          name   span_8297; 
          from   span_8299_n; 
          to     span_8297_n; 
          phases ABCN; 
          length 139.54106; 
          configuration SystemCnstDefaultABCN__4/0 AC; 
          } 

object node {name   span_8297_n; phases ABCN; nominal_voltage 7200;  } 

object overhead_line {
          name   span_10160; 
          from   span_8297_n; 
          to     span_10160_n; 
          phases ABCN; 
          length 48.200691; 
          configuration SystemCnstDefaultABCN__4/0 AC; 
          } 

object node {name   span_10160_n; phases ABCN; nominal_voltage 7200;  } 

object fuse {
          name          F67-6-40; 
          from          span_10160_n; 
          to            F67-6-40_n; 
          phases        ABCN; 
          current_limit 45.00544; 
          mean_replacement_time 1.0 ; 
          repair_dist_type      NONE; 
          } 

object node {name   F67-6-40_n; phases ABCN; nominal_voltage 7200;  } 

object underground_line {
          name   span_14869; 
          from   F67-6-40_n; 
          to     span_14869_n; 
          phases ABCN; 
          length 460.66302; 
          configuration SystemCnstDefaultABC__1/0 URD; 
          } 

object node {name   span_14869_n; phases ABCN; nominal_voltage 7200;  } 

object underground_line {
          name   span_19313; 
          from   span_14869_n; 
          to     span_19313_n; 
          phases ABCN; 
          length 73.438126; 
          configuration SystemCnstDefaultABC__1/0 URD; 
          } 

object node {name   span_19313_n; phases ABCN; nominal_voltage 7200;  } 

object transformer {
          name   TT67-6-23; 
          from   span_19313_n; 
          to     TT67-6-23_n; 
          phases ABCN; 
          configuration WYE_WYE-_75x3-7200To120V; 
          } 

object node {name   TT67-6-23_n; phases ABCN; nominal_voltage 120;  } 

object underground_line {
          name   span_48791; 
          from   TT67-6-23_n; 
          to     span_48791_n; 
          phases ABCN; 
          length 56.030167; 
          configuration SystemCnstDefaultABC__4/0AL UG; 
          } 

...